<?xml version="1.0" encoding="UTF-8"?>
<flow id="c337e251-55ba-4da6-a8f1-c3a9283d36fe">
  <descriptionCdata><![CDATA[c337e251-55ba-4da6-a8f1-c3a9283d36fe.1b20e186-ba96-4a3a-95aa-9865fdbc304a.description=<pre>\nThis workflow updates the Process Instance State using PEM API.\n\nInputs-\nprocessInstanceId \u2013  Process Instance  id\nuserIdentifier  - User Identifier id\nprocessInstanceState \u2013 Gets the value from selection List "HP CSA \u2013 Process Instance State"\nprocessReturnCode - (Optional) Gets the value from selection List "HP CSA - Process Return Code"\nprocessStatus - (Optional) Status text\nauthType - The authentication type that this operation uses when trying to execute the request on the target server.\nValid values\: basic, form, digest, ntlm, kerberos, anonymous (no authentication).\nDefault value\: anonymous - authentication not used when executing the request.\nkerberosConfFile - The path to the Kerberos configuration file. If this input is empty the kdc (Key Distribution Center) and realm will get their values from the full domain name which is obtained from the url of the web server.\ntimeout - The number of milliseconds to wait for a connection to be established. This input should be assigned a value greater than or equal to zero. A timeout value of zero is an infinite timeout.\nDefault value\: 0.\nuseCookies - If true, enables cookie tracking. Cookies will be stored between consecutive calls. This is a boolean input. If a non-boolean value is specified, it will take the default value.\nDefault value\: true.\nproxy - A proxy to use when accessing the web site.\nproxyPort - The port on the proxy to connect to.\nproxyUsername - The username to use when connecting to the proxy.\nproxyPassword - The password to use when connecting to the proxy.\nencodeURL - If true, automatically encodes the URL. This is a boolean input. If a non-boolean value is specified, it will take the default value.\nDefault value\: false.\nuserAgent - The value that should be used if the HTTP header USER_AGENT has to be overridden.\ntrustAllRoots - If true, enables weak security over SSL. A SSL certificate is trusted even if no trusted CA issued it.\nDefault value\: true\nkeystore - URL of the keystore file or local path to it (e.g. %JAVA_HOME%/jre/lib/security/cacerts). It may be empty if HTTPS client authentication is not to be used.\nkeystorePassword - Password to unlock the keystore.\ntrustKeystore - URL of the truststore file or local path to it (e.g. %JAVA_HOME%/jre/lib/security/cacerts). It may be empty if HTTPS server authentication is not to be used.\ntrustPassword - Password to unlock the truststore.\n\nOutputs-\nprocessInstanceState \u2013 Updated state of the process instance\nprocessReturnCode - Updated return code of the process instance\nprocessStatus - Updated status of the process instance\ndocument  \u2013 returned XML document from API\n</pre>
c337e251-55ba-4da6-a8f1-c3a9283d36fe.3450cdac-a25a-4cf4-ac57-1f8708688b4e.description=<pre>\nGenerates an html table from a list of data.\n\nInputs\:\ntableData - The list to generate the table from.\ncolumnDelimiter - A delimiter that separates columns in the tableData.\nrowDelimiter - A delimiter that separates the rows in tableData.\n\nReturns\:\nAn html formatted table.\n\nResponses\:\nsuccess - The operation was successful.\nfailure - Something went wrong.\n\nBelow are example inputs of how the delimiters work\:\n\ntable\: r1c1,r1c2,r1c3,r1c4|r2c1,r2c2,r2c3,r2c4\ncolumnDelimiter\: ,\nrowDelimiter\: |\n\nResult is \n\n<table><tr><td>r1c1</td><td>r1c2</td><td>r1c3</td><td>r1c4</td></tr><tr><td>r2c1</td><td>r2c2</td><td>r2c3</td><td>r2c4</td></tr></table>\nWhich is the HTML for the following table.\n\nr1c1  r1c2  r1c3  r1c4  \nr2c1  r2c2  r2c3  r2c4 \n \n</pre>\n
c337e251-55ba-4da6-a8f1-c3a9283d36fe.53a5ed7e-57fa-4371-a2bd-e3de71a7f15d.description=<pre>This is an operation that does nothing. It can be used for filtering flow variables by feeding them in as inputs and filtering them on the results tab.\n\nInputs\:\nfield1 - optional input that can be used for filtering flow variables.\nfield2 - optional input that can be used for filtering flow variables.\nfield3 - optional input that can be used for filtering flow variables.\nfield4 - optional input that can be used for filtering flow variables.\n\nResponses\:\nsuccess - this operation never fails.\n</pre>
c337e251-55ba-4da6-a8f1-c3a9283d36fe.72e43655-0036-4a49-ba98-93e1f8865fea.description=<pre>Deletes the file or directory specified.\n\nInput Parameters\:\nsource - full path to file/directory to be removed (can be a UNC path)\nuser - Username to use for thread impersonation on the RAS host while deleting.\npassword - Password for the user.\n\nResponses\:\nsuccess - The specified path was successfuly removed.\nfailure - Unable to remove file/directory.\n</pre>
c337e251-55ba-4da6-a8f1-c3a9283d36fe.7c459d4d-7521-4ace-9c1e-bebe8cd3e92a.description=<pre>This is an operation that does nothing. It can be used for filtering flow variables by feeding them in as inputs and filtering them on the results tab.\n\nInputs\:\nfield1 - optional input that can be used for filtering flow variables.\nfield2 - optional input that can be used for filtering flow variables.\nfield3 - optional input that can be used for filtering flow variables.\nfield4 - optional input that can be used for filtering flow variables.\n\nResponses\:\nsuccess - this operation never fails.\n</pre>
c337e251-55ba-4da6-a8f1-c3a9283d36fe.80be7cc1-20d3-419e-b3db-9419f5e76380.description=Generic flow to send an e-mail
c337e251-55ba-4da6-a8f1-c3a9283d36fe.822b48e1-f0d8-422e-8e41-440a55e82e2b.description=<pre>\nService to perform HTTP POST using the Java HTTP Client. This  operation is used to execute an HTTP POST request while sending HTTP POST data in raw form instead of including it in the request itself.\n\nInputs\:\n    url - The URL where to send the HTTP POST request.\n    username - The user name used for URL authentication. For NTLM authentication, the required format is 'domain\\user'.\n    password - The password used for URL authentication.\n    authType - The type of authentication used by this operation when trying to execute the request on the target server.\nValid values\: basic, form, springForm, digest, ntlm, kerberos, anonymous (no authentication).\nDefault value\: anonymous - authentication not used when executing the request.\n    kerberosConfFile - The  path to the Kerberos configuration file. If this input is empty, the "kdc" (Key Distribution Center) and "realm" get their values from the full domain name obtained from the web server URL.\n    timeout - The time to wait for a connection to be established, in  milliseconds. \nValid values\: This input needs a value greater than or equal to zero. A "timeout" value of '0' represents an infinite timeout.\nDefault value\: 0\n    socketTimeout - The time to wait for data to be retrieved, in milliseconds. \nValid values\: This input needs a value greater than or equal to zero. A "socketTimeout" value of '0' represents an infinite timeout.\nDefault value\: 0\n    useCookies - Specifies whether to enable cookie tracking or not. Cookies are stored between consecutive calls. If you specify a non-Boolean value, the default value is used.\nValid values\: true, false\nDefault value\: true\n    proxy - The proxy server used to access the web site.\n    proxyPort - The proxy server port.\nDefault value\: 8080\n    proxyUsername - The user name used when connecting to the proxy server.\n    proxyPassword - The proxy server password associated with the "proxyUsername" input value.\n    encodeURL - Specifies whether to encode the URL. If you specify a non-Boolean value, the default value is used.\nValid values\: true, false\nDefault value\: false\n    file - The file to be posted by this operation using the HTTP POST method. This should be a path to a file/document on the disk.\n    string - The message body to be posted by this operation using the HTTP POST method.\n    contentType - The content type that should be set in the request header, representing the MIME-type of the data in the message body.\nExamples\: "text/html", "text/html; charset\=UTF-8", "application/x-www-form-urlencoded".\n    characterSet - The character encoding to be used for the HTTP POST request and response.\nDefault value\: UTF-8\n    trustAllRoots - Specifies whether to enable weak security over SSL. A SSL certificate is trusted even if no trusted certification authority issued it.\nValid values\: true, false\nDefault value\: true\n    x509HostnameVerifier - Specifies the way the server hostname must match a domain name in the subject's Common Name (CN) or subjectAltName field of the X.509 certificate. The hostname verification system prevents communication with other hosts other than the ones you intended. This is done by checking that the hostname is in the subject alternative name extension of the certificate. This system is designed to ensure that, if an attacker(Man In The Middle) redirects traffic to his machine, the client will not accept the connection. If you set this input to "allow_all", this verification is ignored and you become vulnerable to security attacks. For the value "browser_compatible" the hostname verifier works the same way as Curl and Firefox. The hostname must match either the first CN, or any of the subject-alts. A wildcard can occur in the CN, and in any of the subject-alts. The only difference between "browser_compatible" and "strict" is that a wildcard (such as "*.foo.com") with "browser_compatible" matches all subdomains, including "a.b.foo.com". From the security perspective, to provide protection against possible Man-In-The-Middle attacks, we strongly recommend to use "strict" option.\nDefault value\: allow_all\nValid values\: strict, browser_compatible, allow_all\n    keystore - The location of the KeyStore file - a URL or the local path to it. This input is empty if no HTTPS client authentication is used. The default value will be provided if "trustAllRoots" is "false".\nDefault value\: <OO_Home>/java/lib/security/cacerts\n    keystorePassword - The password associated with the KeyStore file. If "trustAllRoots" is "false" and "keystore" is empty, "keystorePassword" default will be supplied.\nDefault value\: changeit\n    trustKeystore - The location of the TrustStore file - a URL or the local path to it. This input is empty if no HTTPS server authentication is used. The default value will be provided if "trustAllRoots" is "false".\nDefault value\: <OO_Home>/java/lib/security/cacerts\n    trustPassword - The password associated with the TrustStore file. If "trustAllRoots" is "false" and "trustKeystore" is empty, "trustPassword" default will be supplied.\nDefault value\: changeit\n    headerNamesList - The list containing the header names to use for the request.\nExample\: Accept,Content-Type\n    headerValuesList - The list containing the header values to use for the request. \nExample\: text/plain,application/x-www-form-urlencoded\n    queryNamesList - The list containing the names of the query parameters to use for the request. \nExample\: parameterName1,parameterName2 \n    queryValuesList - The list containing the values of the query parameters to use for the request. \nExample\: parameterValue1,parameterValue2\n    delimiter - The delimiter used to separates list elements.\nDefault value\: ','\n\nResults\: \n    returnCode - This is the primary output. A code used to determine the operation response, specifying whether the operation is successful or not.\n    resultText - The raw result of the operation.\n    document - The complete document returned by the Http Client Post Raw operation.\n    URL - The URL used for the HTTP request.\n    pageLoadTimeInMS - The number of milliseconds taken for the page to load.\n    responseTimeInMS - The number of milliseconds taken before the server responded.\n    errorMessage - An informational message that can help determine the cause of error, if an error occurred.\n    httpResult - The description of the HTTP response returned by the web server for the request sent by this operation. This result contains the HTTP response status or GENERAL_ERROR if the HTTP request could not be executed.\nExample\: SUCCESS, PAGE_NOT_FOUND, UNAUTHORIZED, FORBIDDEN and so on.\n    responseHeaders - The list containing the headers of the response message, separated by "delimiter".\n    status - The HTTP response code.\nExample\: HTTP/1.1 200 OK\n\nResponses\:\n    success - The operation completed as stated in the description.\n    PAGE_NOT_FOUND - The URL specified to POST from was not found.\n    INFORMATIONAL - The POST was not fully processed, the server responded with an informational response.\n    REDIRECTION - The specified URL has moved.\n    failure - The operation completed unsuccessfully.\n\nNotes\:\n1. You can use KeyTool to import a SSL certificate in a KeyStore. For example, to import a certificate in the Java cacerts KeyStore, run\: keytool -import -file c\:/../<your_cert>.cer -alias <your_alias> -keystore <OO_Home>/java/lib/security/cacerts -keystorepass changeit. If the KeyStore does not exist, the command tries to create a new one containing only your certificate.\n2. You can use KeyTool to create a certificate chain through the following command\: \n   keytool -genkey -dname "cn\=Mark Jones, ou\=JavaSoft, o\=Sun, c\=US" \n      -alias business -keypass kpi135 -keystore C\:\\working\\mykeystore \n      -storepass ab987c -validity 180\nIt creates a certificate chain in a new keystore containing only one certificate.\n3. If the value assigned to the "trustAllRoots" input is "false" and "trustKeystore" is empty, the operation tries to use the default trust store, using the password "changeit". \n4. If the authentication type is Kerberos, you might need to add an SPN (Service Principal Name) for the web server's computer account.  In order to do this, you can use ADUC (Active Directory Users and Computers) with enabled 'Advanced Features'. Go to the web server's computer account (example\: CN\=<web_server_name>,CN\=Computers,DC\=domain,DC\=com), open the 'Properties' window and press the 'Attribute Editor' tab. Observe the values of the 'servicePrincipalName' attribute and add your SPN if not present. For example, HTTP/<web_server_FQDN>\:port.\n5. If you need to specify query parameters when making the request, use the "queryNamesList" and "queryValuesList" inputs. The operation also accepts including query parameters in the URL. For example, http\://hostname\:80/page.asp?parameterName1\=parameterValue1&parameterName2\=parameterValue2. If you specify the same query parameter both through the "queryNamesList" and the "url" inputs, the used value is the one from the "queryValuesList", not the one included in the "url".\n6. Apache Tomcat is currently the only supported application server when using form-based authentication.\n7. This operation uses chunked transfer encoding, which may cause failures when using HTTP servers and proxies that do not support HTTP/1.1 protocol.\n</pre>
c337e251-55ba-4da6-a8f1-c3a9283d36fe.87c7ad17-81e1-4a72-81fc-e197989ef832.description=<pre>Writes the data from "contents" input to the requested file. The operation can be used to overwrite existing content of the file,  append extra lines to it or even create a new file.\n\nInput Parameters\:\nfile                - Full path to file (can be a UNC path, will attempt to create directory structure). If the file does not exist it is created first.\ncontents        - The contents to write to the file. Contents can have a new line delimiter which is also given as input to the operation, but it is optional. Example\: "This is line no. 01\\nThis is line no. 2\\n" where \\n is the delimiter.\nuser              - Username to use for thread impersonation on the RAS host for this operation.\npassword      - Password for the user.\ndelimiter       - Specifies the newline delimiter (\\n, \\r\\n, etc) that is used for the "contents" input.\noverwrite      - Specifies whether to overwrite the file or append to it. By default, the used value is true. Accepted values\: true, false or the empty string. If this is left empty, the file will be overwritten.\ncharacterSet - The character encoding used to write to the file. The default is UTF-8. Example values\: windows-1252, UTF-16, UTF-16BE,  ISO-8859-1, US-ASCII, Shift_JIS etc.\n\nResponses\:\nsuccess - The contents were written to the file.\nfailure - The operation did not succeed in writing the contents to file.\n</pre>
c337e251-55ba-4da6-a8f1-c3a9283d36fe.932953c1-61a6-46e2-9a54-79d5815cab72.description=This workflow returns the component properties and values using Artifact APIs.\n\nresult\:\npropertyNameValuesList\: pipe separated list of property name and values ( where each property name and values would be ; seprated and multiple values would be , seprated)\ne.g. - property 1; value1,value2|property 2; value3|property 3; value3,value4|........
c337e251-55ba-4da6-a8f1-c3a9283d36fe.a88a06ad-2a46-41df-a774-e3acf8012ce8.description=<pre>Compares two strings lexigraphically.\n\nInputs\:\n String1 - the first string.\n String2 - the second string to be compared with first string.\n\n\nresponses\:\n same \u2013 if both given strings were same\n failure \u2013 if both given strings are not same\n\n\nResult\:\n Result of string comparison \n</pre>
c337e251-55ba-4da6-a8f1-c3a9283d36fe.d290454e-efdd-482c-a1ab-498fcea69886.description=<pre>\nThis operation waits for the number of seconds specified in the "seconds" input.\n\nInputs\:\n    seconds - The number of seconds to wait.\n\nResults\:\n    resultString \u2013 This is the primary output. It contains the "completed sleep" message if the operation completed successfully and an error message otherwise. \n\nResponses\:\n    success - The operation completed as stated in the description.\n    failure - The operation completed unsuccessfully.\n</pre>
c337e251-55ba-4da6-a8f1-c3a9283d36fe.description=<Pre>\nThis Flow gets triggered by CSA and it submits a CSA REST Request for generating an Audit Report Based on Subscription Id.\nFlow, prepares a HTML Report and a CSV file, which then gets embedded in E-MAIL.\nEmail is sent to the Requestor.\n</Pre>
c337e251-55ba-4da6-a8f1-c3a9283d36fe.fb171ad8-c77a-474f-9918-c6490abec113.description=<pre>\nThis workflow updates the Process Instance State using PEM API.\n\nInputs-\nprocessInstanceId \u2013  Process Instance  id\nuserIdentifier  - User Identifier id\nprocessInstanceState \u2013 Gets the value from selection List "HP CSA \u2013 Process Instance State"\nprocessReturnCode - (Optional) Gets the value from selection List "HP CSA - Process Return Code"\nprocessStatus - (Optional) Status text\nauthType - The authentication type that this operation uses when trying to execute the request on the target server.\nValid values\: basic, form, digest, ntlm, kerberos, anonymous (no authentication).\nDefault value\: anonymous - authentication not used when executing the request.\nkerberosConfFile - The path to the Kerberos configuration file. If this input is empty the kdc (Key Distribution Center) and realm will get their values from the full domain name which is obtained from the url of the web server.\ntimeout - The number of milliseconds to wait for a connection to be established. This input should be assigned a value greater than or equal to zero. A timeout value of zero is an infinite timeout.\nDefault value\: 0.\nuseCookies - If true, enables cookie tracking. Cookies will be stored between consecutive calls. This is a boolean input. If a non-boolean value is specified, it will take the default value.\nDefault value\: true.\nproxy - A proxy to use when accessing the web site.\nproxyPort - The port on the proxy to connect to.\nproxyUsername - The username to use when connecting to the proxy.\nproxyPassword - The password to use when connecting to the proxy.\nencodeURL - If true, automatically encodes the URL. This is a boolean input. If a non-boolean value is specified, it will take the default value.\nDefault value\: false.\nuserAgent - The value that should be used if the HTTP header USER_AGENT has to be overridden.\ntrustAllRoots - If true, enables weak security over SSL. A SSL certificate is trusted even if no trusted CA issued it.\nDefault value\: true\nkeystore - URL of the keystore file or local path to it (e.g. %JAVA_HOME%/jre/lib/security/cacerts). It may be empty if HTTPS client authentication is not to be used.\nkeystorePassword - Password to unlock the keystore.\ntrustKeystore - URL of the truststore file or local path to it (e.g. %JAVA_HOME%/jre/lib/security/cacerts). It may be empty if HTTPS server authentication is not to be used.\ntrustPassword - Password to unlock the truststore.\n\nOutputs-\nprocessInstanceState \u2013 Updated state of the process instance\nprocessReturnCode - Updated return code of the process instance\nprocessStatus - Updated status of the process instance\ndocument  \u2013 returned XML document from API\n</pre>
]]></descriptionCdata>
  <annotation>c337e251-55ba-4da6-a8f1-c3a9283d36fe.description</annotation>
  <name>VPC - csa_audit_flow</name>
  <categories/>
  <inputs>
    <staticBinding id="3fa3d9db-30db-42cd-8c3e-985d14702c14">
      <annotation></annotation>
      <assignFromContext>true</assignFromContext>
      <assignToContext>true</assignToContext>
      <inputType>STRING</inputType>
      <isList>false</isList>
      <required>false</required>
      <isPersisted>true</isPersisted>
      <inputSymbol>CSA_CONTEXT_ID</inputSymbol>
      <listDelimiter>,</listDelimiter>
      <value>8af981b73f9bf0a4013fcdef648c02e6</value>
      <record>false</record>
    </staticBinding>
    <staticBinding id="90cec374-cd5a-411f-8f19-e9f7ee40bb2a">
      <annotation></annotation>
      <assignFromContext>true</assignFromContext>
      <assignToContext>true</assignToContext>
      <inputType>STRING</inputType>
      <isList>false</isList>
      <required>false</required>
      <isPersisted>true</isPersisted>
      <inputSymbol>CSA_PROCESS_ID</inputSymbol>
      <listDelimiter>,</listDelimiter>
      <value>8af981b73f9bf0a4013fcdef8f0c0310</value>
      <record>false</record>
    </staticBinding>
    <staticBinding id="23511fcd-8a03-4204-8e6e-00c5cc6c1aea">
      <annotation></annotation>
      <assignFromContext>true</assignFromContext>
      <assignToContext>true</assignToContext>
      <inputType>STRING</inputType>
      <isList>false</isList>
      <required>false</required>
      <isPersisted>true</isPersisted>
      <inputSymbol>SVC_COMPONENT_ID</inputSymbol>
      <listDelimiter>,</listDelimiter>
      <value>[TOKEN:SVC_COMPONENT_ID]</value>
      <record>false</record>
    </staticBinding>
  </inputs>
  <possibleResponses>
    <opResponse id="7dd276cd-bb07-4602-92b0-eab1fb257d29">
      <annotation></annotation>
      <name>failure</name>
      <isDefault>false</isDefault>
      <onFailure>true</onFailure>
      <type>ERROR</type>
      <matchRules/>
    </opResponse>
    <opResponse id="aa7e56e5-a573-4692-b4bc-e7845d067b3a">
      <annotation></annotation>
      <name>success</name>
      <isDefault>true</isDefault>
      <onFailure>false</onFailure>
      <type>RESOLVED</type>
      <matchRules/>
    </opResponse>
  </possibleResponses>
  <availableResultExpressions/>
  <resultExpression id="07c2dd0e-79f2-43eb-9276-930be57ec614">
    <annotation></annotation>
    <name>FailureMessage</name>
    <fieldName>FailureMessage</fieldName>
    <sourceType>RAWRESULT</sourceType>
    <filters/>
  </resultExpression>
  <iconSpec id="ae31deec-793b-49ea-8dcc-4a991a8232a3">
    <baseIcon>flow.png</baseIcon>
    <basePath>System</basePath>
    <readOnly>false</readOnly>
    <layers/>
  </iconSpec>
  <callouts/>
  <checkPointFlow>true</checkPointFlow>
  <compatibleRuntimeContext>false</compatibleRuntimeContext>
  <historyCheckPointFlow>true</historyCheckPointFlow>
  <steps>
    <step id="7ea85290-0f4d-481f-bb7e-298aae3754e3">
      <annotation></annotation>
      <name>Get User Identifier</name>
      <bounds>
        <x>8.0</x>
        <y>186.0</y>
      </bounds>
      <layer>-1</layer>
      <hideInbound>false</hideInbound>
      <iconSpec id="1b597458-8dee-426c-a836-ba2332d7c69d">
        <baseIcon>flow.png</baseIcon>
        <basePath>System</basePath>
        <readOnly>false</readOnly>
        <layers/>
      </iconSpec>
      <addResultToRunContext>false</addResultToRunContext>
      <isCriticalStep>false</isCriticalStep>
      <isNonBlocking>false</isNonBlocking>
      <isParallelStep>false</isParallelStep>
      <isSingleResponse>false</isSingleResponse>
      <recordInHistory>false</recordInHistory>
      <recordRawOutput>false</recordRawOutput>
      <recordPrimaryOutput>false</recordPrimaryOutput>
      <checkPointStep>true</checkPointStep>
      <historyCheckPointStep>true</historyCheckPointStep>
      <scriptResultStep>false</scriptResultStep>
      <userPrompt></userPrompt>
      <bindings>
        <staticBinding id="b1ff720a-86d0-4474-8b88-16b7006d7cc8">
          <annotation></annotation>
          <fromContextKey>CSA_OO_USER</fromContextKey>
          <assignFromContext>false</assignFromContext>
          <assignToContext>false</assignToContext>
          <inputType>STRING</inputType>
          <isList>false</isList>
          <required>true</required>
          <isPersisted>true</isPersisted>
          <inputSymbol>csaUser</inputSymbol>
          <listDelimiter>,</listDelimiter>
          <value>${CSA_OO_USER}</value>
          <record>false</record>
        </staticBinding>
      </bindings>
      <transitions>
        <transition id="97cac510-d7b6-474b-bce2-958498d608f8">
          <annotation></annotation>
          <name>success</name>
          <command>NEXT</command>
          <linkMode>false</linkMode>
          <responseSymbol>success</responseSymbol>
          <shouldHandoff>false</shouldHandoff>
          <transitionValue>0.0</transitionValue>
          <destination>
            <refId>932953c1-61a6-46e2-9a54-79d5815cab72</refId>
          </destination>
          <source>
            <refId>7ea85290-0f4d-481f-bb7e-298aae3754e3</refId>
          </source>
          <positions>
            <point>
              <x>152.0</x>
              <y>165.0</y>
            </point>
            <point>
              <x>331.0</x>
              <y>165.0</y>
            </point>
          </positions>
          <labelPosition>
            <x>333.0</x>
            <y>0.0</y>
          </labelPosition>
        </transition>
        <transition id="b4978e5c-1c44-4560-a8eb-246b24940d9c">
          <annotation></annotation>
          <name>failure</name>
          <command>NEXT</command>
          <linkMode>false</linkMode>
          <responseSymbol>failure</responseSymbol>
          <shouldHandoff>false</shouldHandoff>
          <transitionValue>0.0</transitionValue>
          <destination>
            <refId>fb171ad8-c77a-474f-9918-c6490abec113</refId>
          </destination>
          <source>
            <refId>7ea85290-0f4d-481f-bb7e-298aae3754e3</refId>
          </source>
          <positions>
            <point>
              <x>153.0</x>
              <y>245.0</y>
            </point>
            <point>
              <x>473.0</x>
              <y>452.0</y>
            </point>
          </positions>
          <labelPosition>
            <x>333.0</x>
            <y>0.0</y>
          </labelPosition>
        </transition>
      </transitions>
      <properties/>
      <opRef>
        <refId>f1c8b14a-694f-4a03-a84a-c7504fe0a29b</refId>
      </opRef>
      <assignments>
        <flowVariableAssignment id="a2639d36-aee0-4952-a330-3219cea742c1">
          <annotation></annotation>
          <name>assignment</name>
          <action>OVERWRITE</action>
          <assignmentTargetType>FLOW_VARIABLE</assignmentTargetType>
          <contextKey>userIdentifier</contextKey>
          <expression id="3f28cd11-2fff-40b0-81d3-9cd6d0d7e679">
            <annotation></annotation>
            <name>Result Field: userIdentifier</name>
            <fieldName>userIdentifier</fieldName>
            <sourceType>RAWRESULT</sourceType>
            <filters/>
          </expression>
        </flowVariableAssignment>
      </assignments>
      <throttleSize>0</throttleSize>
    </step>
    <step id="72e43655-0036-4a49-ba98-93e1f8865fea">
      <annotation>c337e251-55ba-4da6-a8f1-c3a9283d36fe.72e43655-0036-4a49-ba98-93e1f8865fea.description</annotation>
      <name>Delete Report After Mail send</name>
      <bounds>
        <x>816.0</x>
        <y>345.0</y>
      </bounds>
      <layer>-1</layer>
      <hideInbound>false</hideInbound>
      <iconSpec id="6a4c25a6-4fdd-4181-9aed-4473f71922c6">
        <baseIcon>document_text.png</baseIcon>
        <basePath>Operating System/</basePath>
        <readOnly>false</readOnly>
        <layers>
          <iconSpec id="114d9d14-2008-4ba3-bdd4-e6465646e806">
            <baseIcon>delete.png</baseIcon>
            <basePath>Annotations/</basePath>
            <readOnly>false</readOnly>
            <layers/>
          </iconSpec>
        </layers>
      </iconSpec>
      <addResultToRunContext>false</addResultToRunContext>
      <isCriticalStep>false</isCriticalStep>
      <isNonBlocking>false</isNonBlocking>
      <isParallelStep>false</isParallelStep>
      <isSingleResponse>false</isSingleResponse>
      <recordInHistory>false</recordInHistory>
      <recordRawOutput>true</recordRawOutput>
      <recordPrimaryOutput>true</recordPrimaryOutput>
      <checkPointStep>true</checkPointStep>
      <historyCheckPointStep>true</historyCheckPointStep>
      <scriptResultStep>false</scriptResultStep>
      <userPrompt></userPrompt>
      <bindings>
        <staticBinding id="9117c95c-59ab-421a-90e8-fd5f070146eb">
          <annotation></annotation>
          <toContextKey></toContextKey>