<?xml version="1.0" encoding="UTF-8"?>
<flow id="57b7a7b4-cdc8-4858-a4b3-053908cc56ec">
  <descriptionCdata><![CDATA[57b7a7b4-cdc8-4858-a4b3-053908cc56ec.0de4c67b-7de2-42cb-a550-46f4a0b6b5e6.description=4f85a494-8451-4b6b-8066-ecc7ae605b9a.228cd6c7-d54c-4da8-81b4-0cc75c81b904.description
57b7a7b4-cdc8-4858-a4b3-053908cc56ec.d4d4ba35-867b-41da-b3c0-7e52d2487b9a.description=4f85a494-8451-4b6b-8066-ecc7ae605b9a.67bc1691-9032-4b5d-bbde-6bbb5a6742de.description
]]></descriptionCdata>
  <annotation></annotation>
  <name>UTIL_FIND_SUBFLOW_FLOW</name>
  <categories/>
  <inputs>
    <userInputBinding id="5240316a-fc16-4bf8-8c32-6ec4f6bdbe01">
      <annotation></annotation>
      <assignFromContext>true</assignFromContext>
      <assignToContext>true</assignToContext>
      <inputType>STRING</inputType>
      <isList>false</isList>
      <required>true</required>
      <isPersisted>true</isPersisted>
      <inputSymbol>build_no</inputSymbol>
      <listDelimiter>,</listDelimiter>
      <record>false</record>
      <prompt></prompt>
      <isMultiSelect>false</isMultiSelect>
      <sourceDelimiter>|</sourceDelimiter>
    </userInputBinding>
    <userInputBinding id="b303c479-b288-4a23-8a83-5c09544843ce">
      <annotation></annotation>
      <assignFromContext>true</assignFromContext>
      <assignToContext>true</assignToContext>
      <inputType>STRING</inputType>
      <isList>false</isList>
      <required>true</required>
      <isPersisted>true</isPersisted>
      <inputSymbol>xpath</inputSymbol>
      <listDelimiter>,</listDelimiter>
      <record>false</record>
      <prompt></prompt>
      <isMultiSelect>false</isMultiSelect>
      <sourceDelimiter>|</sourceDelimiter>
    </userInputBinding>
  </inputs>
  <possibleResponses>
    <opResponse id="afc984cf-0ca0-4162-b9f8-f3a9bb7b39bd">
      <annotation></annotation>
      <name>success</name>
      <isDefault>true</isDefault>
      <onFailure>false</onFailure>
      <type>RESOLVED</type>
      <matchRules/>
    </opResponse>
    <opResponse id="ffdfc0b5-6ff5-49bc-897b-6925876ec8c6">
      <annotation></annotation>
      <name>failure</name>
      <isDefault>false</isDefault>
      <onFailure>true</onFailure>
      <type>ERROR</type>
      <matchRules/>
    </opResponse>
  </possibleResponses>
  <availableResultExpressions/>
  <resultExpression id="5c638561-0159-4f97-a8b1-7521bb10ebe3">
    <annotation></annotation>
    <name>FailureMessage</name>
    <fieldName>FailureMessage</fieldName>
    <sourceType>RAWRESULT</sourceType>
    <filters/>
  </resultExpression>
  <iconSpec id="a9b4d093-dfdc-448e-9145-228229788d13">
    <baseIcon>flow.png</baseIcon>
    <basePath>System</basePath>
    <readOnly>false</readOnly>
    <layers/>
  </iconSpec>
  <callouts/>
  <checkPointFlow>true</checkPointFlow>
  <compatibleRuntimeContext>false</compatibleRuntimeContext>
  <historyCheckPointFlow>true</historyCheckPointFlow>
  <steps>
    <step id="0de4c67b-7de2-42cb-a550-46f4a0b6b5e6">
      <annotation>57b7a7b4-cdc8-4858-a4b3-053908cc56ec.0de4c67b-7de2-42cb-a550-46f4a0b6b5e6.description</annotation>
      <name>GET_ICONCLUDE_HOME</name>
      <bounds>
        <x>224.0</x>
        <y>289.0</y>
      </bounds>
      <layer>-1</layer>
      <hideInbound>false</hideInbound>
      <addResultToRunContext>false</addResultToRunContext>
      <isCriticalStep>false</isCriticalStep>
      <isNonBlocking>false</isNonBlocking>
      <isParallelStep>false</isParallelStep>
      <isSingleResponse>false</isSingleResponse>
      <recordInHistory>false</recordInHistory>
      <recordRawOutput>true</recordRawOutput>
      <recordPrimaryOutput>true</recordPrimaryOutput>
      <checkPointStep>true</checkPointStep>
      <historyCheckPointStep>true</historyCheckPointStep>
      <scriptResultStep>false</scriptResultStep>
      <userPrompt></userPrompt>
      <bindings/>
      <transitions>
        <transition id="3747a7e7-395c-406e-b8e3-2999a7c8dc31">
          <annotation></annotation>
          <name>success</name>
          <command>NEXT</command>
          <linkMode>false</linkMode>
          <responseSymbol>success</responseSymbol>
          <shouldHandoff>false</shouldHandoff>
          <transitionValue>0.0</transitionValue>
          <destination>
            <refId>d4d4ba35-867b-41da-b3c0-7e52d2487b9a</refId>
          </destination>
          <source>
            <refId>0de4c67b-7de2-42cb-a550-46f4a0b6b5e6</refId>
          </source>
          <positions>
            <point>
              <x>267.0</x>
              <y>185.0</y>
            </point>
            <point>
              <x>410.0</x>
              <y>326.0</y>
            </point>
          </positions>
          <labelPosition>
            <x>333.0</x>
            <y>0.0</y>
          </labelPosition>
        </transition>
        <transition id="1307ad44-2832-46c2-9b26-3d986e3a7f7e">
          <annotation></annotation>
          <name>failure</name>
          <command>NEXT</command>
          <linkMode>false</linkMode>
          <responseSymbol>failure</responseSymbol>
          <shouldHandoff>false</shouldHandoff>
          <transitionValue>0.0</transitionValue>
          <destination>
            <refId>af186398-737a-426b-8275-418be9730ed7</refId>
          </destination>
          <source>
            <refId>0de4c67b-7de2-42cb-a550-46f4a0b6b5e6</refId>
          </source>
          <positions>
            <point>
              <x>267.0</x>
              <y>185.0</y>
            </point>
            <point>
              <x>348.0</x>
              <y>472.0</y>
            </point>
          </positions>
          <labelPosition>
            <x>333.0</x>
            <y>0.0</y>
          </labelPosition>
        </transition>
      </transitions>
      <properties/>
      <opRef>
        <refId>9cb741dc-307f-4bcb-85bf-336d40f8b8aa</refId>
      </opRef>
      <assignments>
        <flowVariableAssignment id="3053a3ed-e542-4e96-bad5-e566ed87e842">
          <annotation></annotation>
          <name>assignment</name>
          <action>OVERWRITE</action>
          <assignmentTargetType>FLOW_VARIABLE</assignmentTargetType>
          <contextKey>ICONCLUDE_HOME</contextKey>
          <expression id="d39fa6e6-55d8-4c7f-a39e-1447a0f9cc53">
            <annotation></annotation>
            <name>Result: ICONCLUDE_HOME</name>
            <fieldName>ICONCLUDE_HOME</fieldName>
            <sourceType>AVAILABLE_RESULT</sourceType>
            <filters>
              <replaceAllFilter id="0d73e403-a0b8-4538-85a8-c682437070f2">
                <annotation></annotation>
                <name>Replace</name>
                <ignoreCase>false</ignoreCase>
                <searchString>\</searchString>
                <replaceString>/</replaceString>
                <replaceType>ALL</replaceType>
              </replaceAllFilter>
            </filters>
          </expression>
        </flowVariableAssignment>
      </assignments>
      <throttleSize>0</throttleSize>
    </step>
    <returnStep id="51875274-1c85-4ccd-90e7-a82df87ec584">
      <annotation></annotation>
      <name>Resolved : success</name>
      <bounds>
        <x>610.0</x>
        <y>205.0</y>
      </bounds>
      <layer>-1</layer>
      <hideInbound>false</hideInbound>
      <addResultToRunContext>false</addResultToRunContext>
      <isCriticalStep>false</isCriticalStep>
      <isNonBlocking>false</isNonBlocking>
      <isParallelStep>false</isParallelStep>
      <isSingleResponse>false</isSingleResponse>
      <recordInHistory>false</recordInHistory>
      <recordRawOutput>true</recordRawOutput>
      <recordPrimaryOutput>true</recordPrimaryOutput>
      <checkPointStep>true</checkPointStep>
      <historyCheckPointStep>true</historyCheckPointStep>
      <scriptResultStep>false</scriptResultStep>
      <userPrompt></userPrompt>
      <bindings/>
      <transitions>
        <transition id="942c2c63-6298-4ce8-8cfb-8fbd85576ce3">
          <annotation></annotation>
          <name>return</name>
          <command>NEXT</command>
          <linkMode>false</linkMode>
          <responseSymbol>success</responseSymbol>
          <shouldHandoff>false</shouldHandoff>
          <transitionValue>0.0</transitionValue>
          <destination>
            <refId>51875274-1c85-4ccd-90e7-a82df87ec584</refId>
          </destination>
          <source>
            <refId>51875274-1c85-4ccd-90e7-a82df87ec584</refId>
          </source>
          <positions/>
        </transition>
      </transitions>
      <properties/>
      <returnStepType>RESOLVED</returnStepType>
      <assignments/>
    </returnStep>
    <step id="d4d4ba35-867b-41da-b3c0-7e52d2487b9a">
      <annotation>57b7a7b4-cdc8-4858-a4b3-053908cc56ec.d4d4ba35-867b-41da-b3c0-7e52d2487b9a.description</annotation>
      <name>Get Argument</name>
      <bounds>
        <x>360.0</x>
        <y>292.0</y>
      </bounds>
      <layer>-1</layer>
      <hideInbound>false</hideInbound>
      <addResultToRunContext>false</addResultToRunContext>
      <isCriticalStep>false</isCriticalStep>
      <isNonBlocking>false</isNonBlocking>
      <isParallelStep>false</isParallelStep>
      <isSingleResponse>false</isSingleResponse>
      <recordInHistory>false</recordInHistory>
      <recordRawOutput>true</recordRawOutput>
      <recordPrimaryOutput>true</recordPrimaryOutput>
      <checkPointStep>true</checkPointStep>
      <historyCheckPointStep>true</historyCheckPointStep>
      <scriptResultStep>false</scriptResultStep>
      <userPrompt></userPrompt>
      <bindings>
        <staticBinding id="9272f8d2-6700-43cf-a7f3-9f1c44ba0885">
          <annotation></annotation>
          <assignFromContext>true</assignFromContext>
          <assignToContext>true</assignToContext>
          <inputType>STRING</inputType>
          <isList>false</isList>
          <required>true</required>
          <isPersisted>true</isPersisted>
          <inputSymbol>filename</inputSymbol>
          <listDelimiter>,</listDelimiter>
          <value>${ICONCLUDE_HOME}/sp/${build_no}/sp-oo-flows.xml</value>
          <record>false</record>
        </staticBinding>
        <staticBinding id="6fb5b18c-d930-4125-84ed-5d19e741939f">
          <annotation></annotation>
          <assignFromContext>false</assignFromContext>
          <assignToContext>false</assignToContext>
          <inputType>STRING</inputType>
          <isList>false</isList>
          <required>true</required>
          <isPersisted>true</isPersisted>
          <inputSymbol>xpathQuery</inputSymbol>
          <listDelimiter>,</listDelimiter>
          <value>${xpath}/flow/@path</value>
          <record>false</record>
        </staticBinding>
        <staticBinding id="dfa45504-7433-487e-8245-6fa88415c27e">
          <annotation></annotation>
          <assignFromContext>false</assignFromContext>
          <assignToContext>false</assignToContext>
          <inputType>STRING</inputType>
          <isList>false</isList>
          <required>false</required>
          <isPersisted>true</isPersisted>
          <inputSymbol>delimiter</inputSymbol>
          <listDelimiter>,</listDelimiter>
          <value>|</value>
          <record>false</record>
        </staticBinding>
      </bindings>
      <transitions>
        <transition id="03bca867-40f1-485f-b104-054ad964d4e9">
          <annotation></annotation>
          <name>success</name>
          <command>NEXT</command>
          <linkMode>false</linkMode>
          <responseSymbol>success</responseSymbol>
          <shouldHandoff>false</shouldHandoff>
          <transitionValue>0.0</transitionValue>
          <destination>
            <refId>51875274-1c85-4ccd-90e7-a82df87ec584</refId>
          </destination>
          <source>
            <refId>d4d4ba35-867b-41da-b3c0-7e52d2487b9a</refId>
          </source>
          <positions>
            <point>
              <x>410.0</x>
              <y>326.0</y>
            </point>
            <point>
              <x>662.0</x>
              <y>229.0</y>
            </point>
          </positions>
          <labelPosition>
            <x>333.0</x>
            <y>0.0</y>
          </labelPosition>
        </transition>
        <transition id="a4a9b8d2-4dca-416f-b2f5-5b8e286ac7b1">
          <annotation></annotation>
          <name>failure</name>
          <command>NEXT</command>
          <linkMode>false</linkMode>
          <responseSymbol>failure</responseSymbol>
          <shouldHandoff>false</shouldHandoff>
          <transitionValue>0.0</transitionValue>
          <destination>
            <refId>af186398-737a-426b-8275-418be9730ed7</refId>
          </destination>
          <source>
            <refId>d4d4ba35-867b-41da-b3c0-7e52d2487b9a</refId>
          </source>
          <positions>
            <point>
              <x>410.0</x>
              <y>326.0</y>
            </point>
            <point>
              <x>645.0</x>
              <y>444.0</y>
            </point>
          </positions>
          <labelPosition>
            <x>333.0</x>
            <y>0.0</y>
          </labelPosition>
        </transition>
      </transitions>
      <properties/>
      <opRef>
        <refId>06440807-8f4f-44aa-b8ea-8990e9d9a543</refId>
      </opRef>
      <assignments>
        <flowVariableAssignment id="e3f256d5-50df-47ec-b8ad-be072970d57c">
          <annotation></annotation>
          <name>assignment</name>
          <action>OVERWRITE</action>
          <assignmentTargetType>FLOW_OUTPUT_FIELD</assignmentTargetType>
          <contextKey>flowpath</contextKey>
          <expression id="f807295c-fc1f-4701-ac7a-c32f069f72e6">
            <annotation></annotation>
            <name>Result Field: returnResult</name>
            <fieldName>returnResult</fieldName>
            <sourceType>RAWRESULT</sourceType>
            <filters>
              <replaceAllFilter id="57e55878-0ef1-4c6a-a728-7336471196cb">
                <annotation></annotation>
                <name>Replace</name>
                <ignoreCase>false</ignoreCase>
                <searchString>No match found for XPath query</searchString>
                <replaceType>ALL</replaceType>
              </replaceAllFilter>
            </filters>
          </expression>
        </flowVariableAssignment>
      </assignments>
      <throttleSize>0</throttleSize>
    </step>
    <returnStep id="af186398-737a-426b-8275-418be9730ed7">
      <annotation></annotation>
      <name>Error : failure</name>
      <bounds>
        <x>298.0</x>
        <y>438.0</y>
      </bounds>
      <layer>-1</layer>
      <hideInbound>false</hideInbound>
      <addResultToRunContext>false</addResultToRunContext>
      <isCriticalStep>false</isCriticalStep>
      <isNonBlocking>false</isNonBlocking>
      <isParallelStep>false</isParallelStep>
      <isSingleResponse>false</isSingleResponse>
      <recordInHistory>false</recordInHistory>
      <recordRawOutput>true</recordRawOutput>
      <recordPrimaryOutput>true</recordPrimaryOutput>
      <checkPointStep>true</checkPointStep>
      <historyCheckPointStep>true</historyCheckPointStep>
      <scriptResultStep>false</scriptResultStep>
      <userPrompt></userPrompt>
      <bindings/>
      <transitions>
        <transition id="1a4b56d7-2938-4d7c-ae5f-051e808cc1f3">
          <annotation></annotation>
          <name>return</name>
          <command>NEXT</command>
          <linkMode>false</linkMode>
          <responseSymbol>failure</responseSymbol>
          <shouldHandoff>false</shouldHandoff>
          <transitionValue>0.0</transitionValue>
          <destination>
            <refId>af186398-737a-426b-8275-418be9730ed7</refId>
          </destination>
          <source>
            <refId>af186398-737a-426b-8275-418be9730ed7</refId>
          </source>
          <positions/>
        </transition>
      </transitions>
      <properties/>
      <returnStepType>ERROR</returnStepType>
      <assignments/>
    </returnStep>
  </steps>
  <startSteps>0de4c67b-7de2-42cb-a550-46f4a0b6b5e6</startSteps>
</flow>